units(length='cm', time='s', quantity='mol', act_energy='kcal/mol')

ideal_gas(name='gas',
          elements="H D T C Ci O Oi N Ne Ar He Si S F Cl Br I X",
          species="""He      Ar      Ne      O2(2)   H2O(3)  N2(4)   NO(5)
                     NH3(6)  N2O(7)""",
          transport='Mix',
          initial_state=state(temperature=300.0, pressure=OneAtm))

ideal_interface(name='surface1',
                elements="H D T C Ci O Oi N Ne Ar He Si S F Cl Br I X",
                species="""NOX         OX          NX          OHX
                          NH3X        X(1)        NH2_X(8)    NH_X(9)
                          H2O_X(10)   N2O_X(11)   H_X(12)     NN_ads(36)""",
                site_density=2.483e-09,
                phases="gas",
          reactions='all',
                initial_state=state(temperature=300.0, pressure=OneAtm))

#-------------------------------------------------------------------------------
# Element data
#-------------------------------------------------------------------------------

element(symbol='Ci', atomic_mass=13.003)
element(symbol='D', atomic_mass=2.014)
element(symbol='Oi', atomic_mass=17.999)
element(symbol='T', atomic_mass=3.016)
element(symbol='X', atomic_mass=195.083)
#-------------------------------------------------------------------------------
# Species data
#-------------------------------------------------------------------------------

species(name='He',
        atoms='He:1',
        thermo=(NASA([200.00, 1000.00],
                     [ 2.50000000E+00,  0.00000000E+00,  0.00000000E+00,
                       0.00000000E+00,  0.00000000E+00, -7.45375000E+02,
                       9.28724000E-01]),
                NASA([1000.00, 6000.00],
                     [ 2.50000000E+00,  0.00000000E+00,  0.00000000E+00,
                       0.00000000E+00,  0.00000000E+00, -7.45375000E+02,
                       9.28724000E-01])),
        transport=gas_transport(geom='atom',
                                diam=2.576,
                                well_depth=10.2))

species(name='Ar',
        atoms='Ar:1',
        thermo=(NASA([200.00, 1000.00],
                     [ 2.50000000E+00,  0.00000000E+00,  0.00000000E+00,
                       0.00000000E+00,  0.00000000E+00, -7.45375000E+02,
                       4.37967000E+00]),
                NASA([1000.00, 6000.00],
                     [ 2.50000000E+00,  0.00000000E+00,  0.00000000E+00,
                       0.00000000E+00,  0.00000000E+00, -7.45375000E+02,
                       4.37967000E+00])),
        transport=gas_transport(geom='atom',
                                diam=3.33,
                                well_depth=136.501))

species(name='Ne',
        atoms='Ne:1',
        thermo=(NASA([200.00, 1000.00],
                     [ 2.50000000E+00,  0.00000000E+00,  0.00000000E+00,
                       0.00000000E+00,  0.00000000E+00, -7.45375000E+02,
                       3.35532000E+00]),
                NASA([1000.00, 6000.00],
                     [ 2.50000000E+00,  0.00000000E+00,  0.00000000E+00,
                       0.00000000E+00,  0.00000000E+00, -7.45375000E+02,
                       3.35532000E+00])),
        transport=gas_transport(geom='atom',
                                diam=3.758,
                                well_depth=148.6))

species(name='O2(2)',
        atoms='O:2',
        thermo=(NASA([100.00, 1074.56],
                     [ 3.53732181E+00, -1.21570928E-03,  5.31617817E-06,
                      -4.89443412E-09,  1.45845038E-12, -1.03858846E+03,
                       4.68368407E+00]),
                NASA([1074.56, 5000.00],
                     [ 3.15382426E+00,  1.67803800E-03, -7.69971009E-07,
                       1.51274711E-10, -1.08781798E-14, -1.04081879E+03,
                       6.16753877E+00])),
        transport=gas_transport(geom='linear',
                                diam=3.458,
                                well_depth=107.4,
                                polar=1.6,
                                rot_relax=3.8))

species(name='H2O(3)',
        atoms='H:2 O:1',
        thermo=(NASA([100.00, 1130.25],
                     [ 4.05763654E+00, -7.87943800E-04,  2.90880094E-06,
                      -1.47521964E-09,  2.12854962E-13, -3.02815867E+04,
                      -3.11366607E-01]),
                NASA([1130.25, 5000.00],
                     [ 2.84324565E+00,  2.75109326E-03, -7.81035842E-07,
                       1.07244643E-10, -5.79400410E-15, -2.99586106E+04,
                       5.91044721E+00])),
        transport=gas_transport(geom='nonlinear',
                                diam=2.605,
                                well_depth=572.402,
                                dipole=1.844,
                                rot_relax=4.0))

species(name='N2(4)',
        atoms='N:2',
        thermo=(NASA([200.00, 1000.00],
                     [ 3.53101000E+00, -1.23661000E-04, -5.02999000E-07,
                       2.43531000E-09, -1.40881000E-12, -1.04698000E+03,
                       2.96747000E+00]),
                NASA([1000.00, 6000.00],
                     [ 2.95258000E+00,  1.39690000E-03, -4.92632000E-07,
                       7.86010000E-11, -4.60755000E-15, -9.23949000E+02,
                       5.87189000E+00])),
        transport=gas_transport(geom='linear',
                                diam=3.621,
                                well_depth=97.53,
                                polar=1.76,
                                rot_relax=4.0))

species(name='NO(5)',
        atoms='N:1 O:1',
        thermo=(NASA([100.00, 1407.02],
                     [ 3.55718148E+00, -8.90571060E-04,  2.98553150E-06,
                      -2.08687561E-09,  4.65949875E-13,  9.95239684E+03,
                       4.55251498E+00]),
                NASA([1407.02, 5000.00],
                     [ 2.93798085E+00,  1.75424119E-03, -7.77004101E-07,
                       1.42651639E-10, -9.57838144E-15,  1.00390907E+04,
                       7.44011605E+00])),
        transport=gas_transport(geom='linear',
                                diam=3.621,
                                well_depth=97.53,
                                polar=1.76,
                                rot_relax=4.0))

species(name='NH3(6)',
        atoms='H:3 N:1',
        thermo=(NASA([100.00, 993.33],
                     [ 4.09068772E+00, -2.07163708E-03,  1.14752156E-05,
                      -9.47500324E-09,  2.61222190E-12, -6.69036403E+03,
                       2.22530808E-02]),
                NASA([993.33, 5000.00],
                     [ 2.12302067E+00,  6.45658953E-03, -2.31618467E-06,
                       3.93870042E-10, -2.58108324E-14, -6.32928862E+03,
                       9.35177287E+00])),
        transport=gas_transport(geom='nonlinear',
                                diam=2.92,
                                well_depth=481.001,
                                dipole=1.47,
                                rot_relax=10.0))

species(name='N2O(7)',
        atoms='N:2 O:1',
        thermo=(NASA([100.00, 1026.61],
                     [ 3.22183134E+00,  4.41472209E-03,  2.54399535E-06,
                      -6.06060786E-09,  2.45086810E-12,  8.76576984E+03,
                       6.72929523E+00]),
                NASA([1026.61, 5000.00],
                     [ 4.61743859E+00,  3.00863157E-03, -1.29223139E-06,
                       2.55912332E-10, -1.88712260E-14,  8.26676745E+03,
                      -1.07508656E+00])),
        transport=gas_transport(geom='linear',
                                diam=3.828,
                                well_depth=232.401,
                                rot_relax=1.0))

species(name='NOX',
        atoms='N:1 O:1 X:1',
        thermo=(NASA([298.00, 1000.00],
                     [ 1.91253452E+00,  1.19742948E-02, -1.74150740E-05,
                       1.31050130E-08, -3.98440482E-12, -1.39133497E+04,
                      -9.50920619E+00]),
                NASA([1000.00, 2000.00],
                     [ 5.58200160E+00, -1.44698193E-03,  2.66840782E-06,
                      -1.48667738E-09,  2.75613483E-13, -1.47707534E+04,
                      -2.76785587E+01])))

species(name='OX',
        atoms='O:1 X:1',
        thermo=(NASA([298.00, 1000.00],
                     [ 1.79722382E-01,  1.25453156E-02, -2.29924588E-05,
                       1.94187177E-08, -6.22414099E-12, -1.73402246E+04,
                      -2.22409728E+00]),
                NASA([1000.00, 2000.00],
                     [ 2.92050897E+00, -2.70455589E-04,  5.15610634E-07,
                      -2.93911213E-10,  5.54030466E-14, -1.78369003E+04,
                      -1.50940536E+01])))

species(name='NX',
        atoms='N:1 X:1',
        thermo=(NASA([298.00, 1000.00],
                     [-8.62158075E-01,  1.65321723E-02, -2.95187453E-05,
                       2.44741387E-08, -7.73894837E-12,  4.56391760E+03,
                       2.27263793E+00]),
                NASA([1000.00, 2000.00],
                     [ 2.87812725E+00, -4.32547150E-04,  8.18868468E-07,
                      -4.65641564E-10,  8.76522110E-14,  3.86307901E+03,
                      -1.54118153E+01])))

species(name='OHX',
        atoms='H:1 O:1 X:1',
        thermo=(NASA([298.00, 1000.00],
                     [ 1.07348583E+00,  1.72652206E-02, -3.17712232E-05,
                       2.71536568E-08, -8.69449304E-12, -1.96002909E+04,
                      -5.65622336E+00]),
                NASA([1000.00, 2000.00],
                     [ 5.01870328E+00, -1.35424298E-03,  2.27686310E-06,
                      -1.09407298E-09,  1.79396487E-13, -2.02979842E+04,
                      -2.41159621E+01])))

species(name='NH3X',
        atoms='H:3 N:1 X:1',
        thermo=(NASA([298.00, 1000.00],
                     [ 1.31496774E+00,  1.46998289E-02, -1.30679071E-05,
                       6.99360870E-09, -1.52920905E-12, -1.45305774E+04,
                      -4.29992592E+00]),
                NASA([1000.00, 2000.00],
                     [ 8.39460262E+00, -7.22640455E-03,  1.26169819E-05,
                      -6.50952664E-09,  1.13563586E-12, -1.63659104E+04,
                      -4.02856883E+01])))

species(name='X(1)',
        atoms='X:1',
        thermo=(NASA([298.00, 1000.00],
                     [ 0.00000000E+00,  0.00000000E+00,  0.00000000E+00,
                       0.00000000E+00,  0.00000000E+00,  0.00000000E+00,
                       0.00000000E+00]),
                NASA([1000.00, 3000.00],
                     [ 0.00000000E+00,  0.00000000E+00,  0.00000000E+00,
                       0.00000000E+00,  0.00000000E+00,  0.00000000E+00,
                       0.00000000E+00])))

species(name='NH2_X(8)',
        atoms='H:2 N:1 X:1',
        thermo=(NASA([298.00, 1000.00],
                     [-1.89010759E+00,  2.86217997E-02, -4.34545237E-05,
                       3.34143285E-08, -9.99500135E-12, -4.87893528E+03,
                       6.34997611E+00]),
                NASA([1000.00, 2000.00],
                     [ 6.67968147E+00, -4.64266766E-03,  8.12871035E-06,
                      -4.20436074E-09,  7.35132153E-13, -6.75225639E+03,
                      -3.55181494E+01])))

species(name='NH_X(9)',
        atoms='H:1 N:1 X:1',
        thermo=(NASA([298.00, 1000.00],
                     [-2.68663098E+00,  2.89197486E-02, -4.76398566E-05,
                       3.77368064E-08, -1.14895177E-11, -1.39698939E+03,
                       9.81076735E+00]),
                NASA([1000.00, 2000.00],
                     [ 4.82700699E+00, -2.46380210E-03,  4.35378855E-06,
                      -2.27895186E-09,  4.02508146E-13, -2.92453268E+03,
                      -2.63392973E+01])))

species(name='H2O_X(10)',
        atoms='H:2 O:1 X:1',
        thermo=(NASA([298.00, 1000.00],
                     [ 2.53777266E+00,  9.45372010E-03, -1.41325664E-05,
                       1.16730945E-08, -3.67657640E-12, -3.27590463E+04,
                      -5.36548561E+00]),
                NASA([1000.00, 2000.00],
                     [ 5.84789466E+00, -3.31526816E-03,  5.62018785E-06,
                      -2.75864893E-09,  4.61279066E-13, -3.34885608E+04,
                      -2.15622699E+01])))

species(name='N2O_X(11)',
        atoms='N:2 O:1 X:1',
        thermo=(NASA([100.00, 922.11],
                     [ 4.14561464E+00, -1.68703748E-02,  7.96504716E-05,
                      -9.67499402E-08,  3.72750092E-11,  5.73246537E+03,
                      -1.16602964E+01]),
                NASA([922.11, 5000.00],
                     [ 9.61526693E+00, -5.47386513E-03,  3.97655308E-06,
                      -7.31585378E-10,  4.35197965E-14,  3.23050544E+03,
                      -4.57015200E+01])))

species(name='H_X(12)',
        atoms='H:1 X:1',
        thermo=(NASA([298.00, 1000.00],
                     [-1.96702988E+00,  1.67920714E-02, -2.50314139E-05,
                       1.80485455E-08, -5.11491197E-12, -3.21277026E+03,
                       7.68211257E+00]),
                NASA([1000.00, 2000.00],
                     [ 2.71968546E+00, -1.07696656E-03,  2.00193294E-06,
                      -1.12865983E-09,  2.11269165E-13, -4.24701712E+03,
                      -1.52793490E+01])))

species(name='NN_ads(36)',
        atoms='N:2 X:1',
        thermo=(NASA([298.00, 1000.00],
                     [ 4.13993917E+00, -9.92755910E-04,  1.76704033E-06,
                      -1.57884342E-10, -3.64206712E-13, -4.38199802E+03,
                      -7.98299353E+00]),
                NASA([1000.00, 2000.00],
                     [ 4.38660517E+00, -1.50692391E-03,  2.67640594E-06,
                      -1.41531803E-09,  2.51363379E-13, -4.48345747E+03,
                      -9.36216462E+00])))

#-------------------------------------------------------------------------------
# Reaction data
#-------------------------------------------------------------------------------
#  Reaction index: Chemkin #1; RMG #1
#  Library reaction: Surface/Schneider_Rh211
#  Flux pairs: O2(2), OX; X(1), OX; X(1), OX;

# surface1 Reaction 1
surface_reaction('X(1) + X(1) + O2(2) <=> OX + OX', stick(1.000000e+00, 0.0, 0.0))
#  Reaction index: Chemkin #2; RMG #2
#  Library reaction: Surface/Schneider_Rh211
#  Flux pairs: X(1), NH3X; NH3(6), NH3X;

# surface1 Reaction 2
surface_reaction('X(1) + NH3(6) <=> NH3X', stick(1.000000e+00, 0.0, 0.0))
#  Reaction index: Chemkin #3; RMG #3
#  Library reaction: Surface/Schneider_Rh211
#  Flux pairs: OX, OHX; NH3X, NH2_X(8);

# surface1 Reaction 3
surface_reaction('OX + NH3X <=> OHX + NH2_X(8)', [2.330000e+21, 0.0, 14.99])
#  Reaction index: Chemkin #4; RMG #4
#  Library reaction: Surface/Schneider_Rh211
#  Flux pairs: OX, OHX; NH2_X(8), NH_X(9);

# surface1 Reaction 4
surface_reaction('OX + NH2_X(8) <=> OHX + NH_X(9)', [2.330000e+21, 0.0, 34.362])
#  Reaction index: Chemkin #5; RMG #5
#  Library reaction: Surface/Schneider_Rh211
#  Flux pairs: OX, OHX; NH_X(9), NX;

# surface1 Reaction 5
surface_reaction('OX + NH_X(9) <=> NX + OHX', [2.330000e+21, 0.0, 14.529])
#  Reaction index: Chemkin #6; RMG #6
#  Library reaction: Surface/Schneider_Rh211
#  Flux pairs: OHX, H2O_X(10); NH3X, NH2_X(8);

# surface1 Reaction 6
surface_reaction('OHX + NH3X <=> H2O_X(10) + NH2_X(8)', [2.330000e+21, 0.0, 21.909])
#  Reaction index: Chemkin #7; RMG #7
#  Library reaction: Surface/Schneider_Rh211
#  Flux pairs: OHX, H2O_X(10); NH2_X(8), NH_X(9);

# surface1 Reaction 7
surface_reaction('OHX + NH2_X(8) <=> NH_X(9) + H2O_X(10)', [2.330000e+21, 0.0, 23.292])
#  Reaction index: Chemkin #8; RMG #8
#  Library reaction: Surface/Schneider_Rh211
#  Flux pairs: OHX, H2O_X(10); NH_X(9), NX;

# surface1 Reaction 8
surface_reaction('OHX + NH_X(9) <=> NX + H2O_X(10)', [2.330000e+21, 0.0, 20.525])
#  Reaction index: Chemkin #9; RMG #9
#  Library reaction: Surface/Schneider_Rh211
#  Flux pairs: OHX, H2O_X(10); OHX, OX;

# surface1 Reaction 9
surface_reaction('OHX + OHX <=> OX + H2O_X(10)', [2.330000e+21, 0.0, 22.139])
#  Reaction index: Chemkin #10; RMG #10
#  Library reaction: Surface/Schneider_Rh211
#  Flux pairs: X(1), H2O_X(10); H2O(3), H2O_X(10);

# surface1 Reaction 10
surface_reaction('X(1) + H2O(3) <=> H2O_X(10)', stick(1.000000e+00, 0.0, 10.378))
#  Reaction index: Chemkin #11; RMG #11
#  Library reaction: Surface/Schneider_Rh211
#  Flux pairs: N2(4), NX; X(1), NX; X(1), NX;

# surface1 Reaction 11
surface_reaction('X(1) + X(1) + N2(4) <=> NX + NX', stick(1.000000e+00, 0.0, 40.589))
#  Reaction index: Chemkin #12; RMG #12
#  Library reaction: Surface/Schneider_Rh211
#  Flux pairs: OX, NOX; NX, X(1);

# surface1 Reaction 12
surface_reaction('OX + NX <=> X(1) + NOX', [2.330000e+21, 0.0, 39.897])
#  Reaction index: Chemkin #13; RMG #13
#  Library reaction: Surface/Schneider_Rh211
#  Flux pairs: NOX, X(1); NOX, NO(5);

# surface1 Reaction 13
surface_reaction('NOX <=> X(1) + NO(5)', [6.550000e+14, 0.0, 64.573])
#  Reaction index: Chemkin #14; RMG #14
#  Library reaction: Surface/Schneider_Rh211
#  Flux pairs: NOX, N2O_X(11); NX, X(1);

# surface1 Reaction 14
surface_reaction('NX + NOX <=> X(1) + N2O_X(11)', [2.330000e+21, 0.0, 50.505])
#  Reaction index: Chemkin #15; RMG #15
#  Library reaction: Surface/Schneider_Rh211
#  Flux pairs: N2O_X(11), X(1); N2O_X(11), N2O(7);

# surface1 Reaction 15
surface_reaction('N2O_X(11) <=> X(1) + N2O(7)', [1.690000e+13, 0.0, 13.145])
#  Reaction index: Chemkin #16; RMG #16
#  Library reaction: Surface/Schneider_Rh211
#  Flux pairs: NH3X, NH2_X(8); X(1), H_X(12);

# surface1 Reaction 16
surface_reaction('X(1) + NH3X <=> H_X(12) + NH2_X(8)', [1.960000e+23, 0.0, 21.217])
#  Reaction index: Chemkin #17; RMG #17
#  Library reaction: Surface/Schneider_Rh211
#  Flux pairs: NH2_X(8), NH_X(9); X(1), H_X(12);

# surface1 Reaction 17
surface_reaction('X(1) + NH2_X(8) <=> H_X(12) + NH_X(9)', [2.190000e+23, 0.0, 28.135])
#  Reaction index: Chemkin #18; RMG #18
#  Library reaction: Surface/Schneider_Rh211
#  Flux pairs: NH_X(9), NX; X(1), H_X(12);

# surface1 Reaction 18
surface_reaction('X(1) + NH_X(9) <=> NX + H_X(12)', [2.190000e+23, 0.0, 21.217])
#  Reaction index: Chemkin #19; RMG #19
#  Library reaction: Surface/Schneider_Rh211
#  Flux pairs: OX, OHX; H_X(12), X(1);

# surface1 Reaction 19
surface_reaction('OX + H_X(12) <=> X(1) + OHX', [2.330000e+21, 0.0, 20.525])
#  Reaction index: Chemkin #20; RMG #20
#  Library reaction: Surface/Schneider_Rh211
#  Flux pairs: OHX, H2O_X(10); H_X(12), X(1);

# surface1 Reaction 20
surface_reaction('H_X(12) + OHX <=> X(1) + H2O_X(10)', [2.330000e+21, 0.0, 23.062])
#  Reaction index: Chemkin #21; RMG #36
#  Template reaction: Surface_Abstraction_vdW
#  Estimated using template [AdsorbateVdW;Adsorbate1] for rate rule [N-R;*=NH]
#  Euclidian distance = 3.1622776601683795
#  Multiplied by reaction path degeneracy 3.0
#  family: Surface_Abstraction_vdW

# surface1 Reaction 21
surface_reaction('NH_X(9) + NH3X <=> NH2_X(8) + NH2_X(8)', [4.949007e+19, 0.653, 28.713])
#  Reaction index: Chemkin #22; RMG #39
#  Template reaction: Surface_Abstraction_vdW
#  Estimated using template [AdsorbateVdW;Adsorbate1] for rate rule [N-R;*#N]
#  Euclidian distance = 2.23606797749979
#  Multiplied by reaction path degeneracy 3.0
#  family: Surface_Abstraction_vdW

# surface1 Reaction 22
surface_reaction('NX + NH3X <=> NH_X(9) + NH2_X(8)', [4.949007e+19, 0.653, 28.713])
#  Reaction index: Chemkin #23; RMG #45
#  Template reaction: Surface_Adsorption_Dissociative
#  Flux pairs: NH3(6), H_X(12); NH3(6), NH2_X(8);
#  Estimated using template [Adsorbate;VacantSite1;VacantSite2] for rate rule [N;VacantSite1;VacantSite2]
#  Euclidian distance = 1.0
#  Multiplied by reaction path degeneracy 1.5
#  family: Surface_Adsorption_Dissociative

# surface1 Reaction 23
surface_reaction('X(1) + X(1) + NH3(6) <=> H_X(12) + NH2_X(8)', stick(2.400000e-02, 0.0, 0.0))
#  Reaction index: Chemkin #24; RMG #46
#  Template reaction: Surface_Abstraction
#  Flux pairs: NX, NH_X(9); NH2_X(8), NH_X(9);
#  Estimated using template [Abstracting;*R-H] for rate rule [:N#*;*-N-H]
#  Euclidian distance = 3.605551275463989
#  Multiplied by reaction path degeneracy 2.0
#  family: Surface_Abstraction

# surface1 Reaction 24
surface_reaction('NX + NH2_X(8) <=> NH_X(9) + NH_X(9)', [8.359256e+21, -0.018, 7.182])
#  Reaction index: Chemkin #25; RMG #57
#  Template reaction: Surface_Adsorption_Dissociative
#  Flux pairs: H2O(3), OHX; H2O(3), H_X(12);
#  Estimated using template [Adsorbate;VacantSite1;VacantSite2] for rate rule [H2O;VacantSite1;VacantSite2]
#  Euclidian distance = 3.0
#  Multiplied by reaction path degeneracy 2.0
#  family: Surface_Adsorption_Dissociative
#  Ea raised from 0.0 to 61.9 kJ/mol to match endothermicity of reaction.

# surface1 Reaction 25
surface_reaction('X(1) + X(1) + H2O(3) <=> H_X(12) + OHX', stick(3.200000e-02, 0.0, 14.803))
#  Reaction index: Chemkin #26; RMG #58
#  Template reaction: Surface_Adsorption_vdW
#  Flux pairs: X(1), NN_ads(36); N2(4), NN_ads(36);
#  From training reaction 5 used for Adsorbate;VacantSite
#  Exact match found for rate rule [Adsorbate;VacantSite]
#  Euclidian distance = 0
#  family: Surface_Adsorption_vdW

# surface1 Reaction 26
surface_reaction('X(1) + N2(4) <=> NN_ads(36)', stick(1.000000e-01, 0.0, 0.0))
