units(length='cm', time='s', quantity='mol', act_energy='kcal/mol')

ideal_gas(name='gas',
          elements="H D T C Ci O Oi N Ne Ar He Si S F Cl Br I X",
          species="""He      Ar      Ne      O2(2)   H2O(3)  N2(4)   NO(5)
                     NH3(6)  N2O(7)  H2(13)""",
          transport='Mix',
          initial_state=state(temperature=300.0, pressure=OneAtm))

ideal_interface(name='surface1',
                elements="H D T C Ci O Oi N Ne Ar He Si S F Cl Br I X",
                species="""NOX        OX         NX         OHX
                          NH3X       X(1)       NH2_X(8)   NH_X(9)
                          H2O_X(10)  N2O_X(11)  H_X(12)    H2X(31)""",
                site_density=2.817e-09,
                phases="gas",
          reactions='all',
                initial_state=state(temperature=300.0, pressure=OneAtm))

#-------------------------------------------------------------------------------
# Element data
#-------------------------------------------------------------------------------

element(symbol='Ci', atomic_mass=13.003)
element(symbol='D', atomic_mass=2.014)
element(symbol='Oi', atomic_mass=17.999)
element(symbol='T', atomic_mass=3.016)
element(symbol='X', atomic_mass=195.083)
#-------------------------------------------------------------------------------
# Species data
#-------------------------------------------------------------------------------

species(name='He',
        atoms='He:1',
        thermo=(NASA([200.00, 1000.00],
                     [ 2.50000000E+00,  0.00000000E+00,  0.00000000E+00,
                       0.00000000E+00,  0.00000000E+00, -7.45375000E+02,
                       9.28724000E-01]),
                NASA([1000.00, 6000.00],
                     [ 2.50000000E+00,  0.00000000E+00,  0.00000000E+00,
                       0.00000000E+00,  0.00000000E+00, -7.45375000E+02,
                       9.28724000E-01])),
        transport=gas_transport(geom='atom',
                                diam=2.576,
                                well_depth=10.2))

species(name='Ar',
        atoms='Ar:1',
        thermo=(NASA([200.00, 1000.00],
                     [ 2.50000000E+00,  0.00000000E+00,  0.00000000E+00,
                       0.00000000E+00,  0.00000000E+00, -7.45375000E+02,
                       4.37967000E+00]),
                NASA([1000.00, 6000.00],
                     [ 2.50000000E+00,  0.00000000E+00,  0.00000000E+00,
                       0.00000000E+00,  0.00000000E+00, -7.45375000E+02,
                       4.37967000E+00])),
        transport=gas_transport(geom='atom',
                                diam=3.33,
                                well_depth=136.501))

species(name='Ne',
        atoms='Ne:1',
        thermo=(NASA([200.00, 1000.00],
                     [ 2.50000000E+00,  0.00000000E+00,  0.00000000E+00,
                       0.00000000E+00,  0.00000000E+00, -7.45375000E+02,
                       3.35532000E+00]),
                NASA([1000.00, 6000.00],
                     [ 2.50000000E+00,  0.00000000E+00,  0.00000000E+00,
                       0.00000000E+00,  0.00000000E+00, -7.45375000E+02,
                       3.35532000E+00])),
        transport=gas_transport(geom='atom',
                                diam=3.758,
                                well_depth=148.6))

species(name='O2(2)',
        atoms='O:2',
        thermo=(NASA([100.00, 1074.56],
                     [ 3.53732181E+00, -1.21570928E-03,  5.31617817E-06,
                      -4.89443412E-09,  1.45845038E-12, -1.03858846E+03,
                       4.68368407E+00]),
                NASA([1074.56, 5000.00],
                     [ 3.15382426E+00,  1.67803800E-03, -7.69971009E-07,
                       1.51274711E-10, -1.08781798E-14, -1.04081879E+03,
                       6.16753877E+00])),
        transport=gas_transport(geom='linear',
                                diam=3.458,
                                well_depth=107.4,
                                polar=1.6,
                                rot_relax=3.8))

species(name='H2O(3)',
        atoms='H:2 O:1',
        thermo=(NASA([100.00, 1130.25],
                     [ 4.05763654E+00, -7.87943800E-04,  2.90880094E-06,
                      -1.47521964E-09,  2.12854962E-13, -3.02815867E+04,
                      -3.11366607E-01]),
                NASA([1130.25, 5000.00],
                     [ 2.84324565E+00,  2.75109326E-03, -7.81035842E-07,
                       1.07244643E-10, -5.79400410E-15, -2.99586106E+04,
                       5.91044721E+00])),
        transport=gas_transport(geom='nonlinear',
                                diam=2.605,
                                well_depth=572.402,
                                dipole=1.844,
                                rot_relax=4.0))

species(name='N2(4)',
        atoms='N:2',
        thermo=(NASA([200.00, 1000.00],
                     [ 3.53101000E+00, -1.23661000E-04, -5.02999000E-07,
                       2.43531000E-09, -1.40881000E-12, -1.04698000E+03,
                       2.96747000E+00]),
                NASA([1000.00, 6000.00],
                     [ 2.95258000E+00,  1.39690000E-03, -4.92632000E-07,
                       7.86010000E-11, -4.60755000E-15, -9.23949000E+02,
                       5.87189000E+00])),
        transport=gas_transport(geom='linear',
                                diam=3.621,
                                well_depth=97.53,
                                polar=1.76,
                                rot_relax=4.0))

species(name='NO(5)',
        atoms='N:1 O:1',
        thermo=(NASA([100.00, 1407.02],
                     [ 3.55718148E+00, -8.90571060E-04,  2.98553150E-06,
                      -2.08687561E-09,  4.65949875E-13,  9.95239684E+03,
                       4.55251498E+00]),
                NASA([1407.02, 5000.00],
                     [ 2.93798085E+00,  1.75424119E-03, -7.77004101E-07,
                       1.42651639E-10, -9.57838144E-15,  1.00390907E+04,
                       7.44011605E+00])),
        transport=gas_transport(geom='linear',
                                diam=3.621,
                                well_depth=97.53,
                                polar=1.76,
                                rot_relax=4.0))

species(name='NH3(6)',
        atoms='H:3 N:1',
        thermo=(NASA([100.00, 993.33],
                     [ 4.09068772E+00, -2.07163708E-03,  1.14752156E-05,
                      -9.47500324E-09,  2.61222190E-12, -6.69036403E+03,
                       2.22530808E-02]),
                NASA([993.33, 5000.00],
                     [ 2.12302067E+00,  6.45658953E-03, -2.31618467E-06,
                       3.93870042E-10, -2.58108324E-14, -6.32928862E+03,
                       9.35177287E+00])),
        transport=gas_transport(geom='nonlinear',
                                diam=2.92,
                                well_depth=481.001,
                                dipole=1.47,
                                rot_relax=10.0))

species(name='N2O(7)',
        atoms='N:2 O:1',
        thermo=(NASA([100.00, 1026.61],
                     [ 3.22183134E+00,  4.41472209E-03,  2.54399535E-06,
                      -6.06060786E-09,  2.45086810E-12,  8.76576984E+03,
                       6.72929523E+00]),
                NASA([1026.61, 5000.00],
                     [ 4.61743859E+00,  3.00863157E-03, -1.29223139E-06,
                       2.55912332E-10, -1.88712260E-14,  8.26676745E+03,
                      -1.07508656E+00])),
        transport=gas_transport(geom='linear',
                                diam=3.828,
                                well_depth=232.401,
                                rot_relax=1.0))

species(name='H2(13)',
        atoms='H:2',
        thermo=(NASA([100.00, 1959.08],
                     [ 3.43536422E+00,  2.12709424E-04, -2.78622934E-07,
                       3.40265512E-10, -7.76027902E-14, -1.03135985E+03,
                      -3.90841773E+00]),
                NASA([1959.08, 5000.00],
                     [ 2.78815464E+00,  5.87655486E-04,  1.59003608E-07,
                      -5.52725361E-11,  4.34301024E-15, -5.96137665E+02,
                       1.12799013E-01])),
        transport=gas_transport(geom='linear',
                                diam=2.92,
                                well_depth=38.0,
                                polar=0.79,
                                rot_relax=280.0))

species(name='NOX',
        atoms='N:1 O:1 X:1',
        thermo=(NASA([100.00, 883.92],
                     [-1.32973548E+00,  3.47562426E-02, -7.28194042E-05,
                       6.89500051E-08, -2.39273384E-11, -1.68948226E+04,
                       4.18005025E+00]),
                NASA([883.92, 5000.00],
                     [ 2.03742391E+00,  6.83863771E-03, -3.92545197E-06,
                       7.59718741E-10, -5.08385406E-14, -1.69947213E+04,
                      -8.84700636E+00])))

species(name='OX',
        atoms='O:1 X:1',
        thermo=(NASA([100.00, 888.27],
                     [-7.59000454E-01,  1.89866900E-02, -3.82467611E-05,
                       3.43549593E-08, -1.13970207E-11, -2.84381108E+04,
                       1.76012942E+00]),
                NASA([888.27, 5000.00],
                     [ 1.89890451E+00,  2.03301030E-03, -1.19979899E-06,
                       2.32688672E-10, -1.53515030E-14, -2.87136437E+04,
                      -9.64086377E+00])))

species(name='NX',
        atoms='N:1 X:1',
        thermo=(NASA([100.00, 879.02],
                     [-6.34129886E-01,  1.45654963E-02, -2.38195774E-05,
                       1.78134733E-08, -5.04559639E-12, -5.42745055E+03,
                       1.36000002E+00]),
                NASA([879.02, 5000.00],
                     [ 2.37436694E+00,  8.75702550E-04, -4.59433345E-07,
                       9.72310153E-11, -7.12295754E-15, -5.95637324E+03,
                      -1.27664158E+01])))

species(name='OHX',
        atoms='H:1 O:1 X:1',
        thermo=(NASA([100.00, 914.57],
                     [-1.29516335E+00,  3.36479531E-02, -7.07730222E-05,
                       6.54332475E-08, -2.19418199E-11, -2.49466406E+04,
                       4.37634184E+00]),
                NASA([914.57, 5000.00],
                     [ 2.43523226E+00,  4.64631945E-03, -2.40006460E-06,
                       4.26397081E-10, -2.60645766E-14, -2.50984218E+04,
                      -1.03869262E+01])))

species(name='NH3X',
        atoms='H:3 N:1 X:1',
        thermo=(NASA([100.00, 891.64],
                     [-1.32281214E+00,  3.32032140E-02, -5.81075215E-05,
                       5.25354458E-08, -1.78678769E-11, -1.42509110E+04,
                       6.84407165E+00]),
                NASA([891.64, 5000.00],
                     [ 1.51792716E+00,  1.10206994E-02, -4.91143838E-06,
                       8.89255447E-10, -5.84327584E-14, -1.43822995E+04,
                      -4.43107885E+00])))

species(name='X(1)',
        atoms='X:1',
        thermo=(NASA([100.00, 1554.79],
                     [ 7.10148144E-03, -4.25627912E-05,  8.98555226E-08,
                      -7.80214407E-11,  2.32471659E-14, -8.76106013E-01,
                      -3.11214469E-02]),
                NASA([1554.79, 5000.00],
                     [ 1.60297302E-01, -2.52231685E-04,  1.14179388E-07,
                      -1.21467614E-11,  3.85758990E-16, -7.08087280E+01,
                      -9.09512410E-01])))

species(name='NH2_X(8)',
        atoms='H:2 N:1 X:1',
        thermo=(NASA([100.00, 1048.31],
                     [-1.05942192E+00,  2.24143331E-02, -2.76852659E-05,
                       1.70374041E-08, -4.02944869E-12, -8.28458640E+03,
                       2.89982344E+00]),
                NASA([1048.31, 5000.00],
                     [ 3.79074210E+00,  3.90687362E-03, -1.20218810E-06,
                       1.94864152E-10, -1.26692837E-14, -9.30143439E+03,
                      -2.07280172E+01])))

species(name='NH_X(9)',
        atoms='H:1 N:1 X:1',
        thermo=(NASA([100.00, 1468.82],
                     [-9.44508350E-01,  1.68970084E-02, -1.92566252E-05,
                       1.00683229E-08, -1.93228787E-12, -8.23084652E+03,
                       2.43346293E+00]),
                NASA([1468.82, 5000.00],
                     [ 4.25852057E+00,  1.18125477E-04,  5.43428447E-07,
                      -1.28084124E-10,  9.06261684E-15, -9.47780514E+03,
                      -2.37102339E+01])))

species(name='H2O_X(10)',
        atoms='H:2 O:1 X:1',
        thermo=(NASA([100.00, 912.84],
                     [-1.34342208E+00,  3.66698127E-02, -7.99490480E-05,
                       7.74138954E-08, -2.68671706E-11, -3.23490296E+04,
                       1.10238400E+01]),
                NASA([912.84, 5000.00],
                     [ 1.12164733E+00,  8.16629070E-03, -4.02352032E-06,
                       7.20406376E-10, -4.51430154E-14, -3.20615470E+04,
                       3.39583083E+00])))

species(name='N2O_X(11)',
        atoms='N:2 O:1 X:1',
        thermo=(NASA([100.00, 922.11],
                     [ 4.14561464E+00, -1.68703748E-02,  7.96504716E-05,
                      -9.67499402E-08,  3.72750092E-11, -9.15756267E+02,
                      -1.16602964E+01]),
                NASA([922.11, 5000.00],
                     [ 9.61526693E+00, -5.47386513E-03,  3.97655308E-06,
                      -7.31585378E-10,  4.35197965E-14, -3.41771620E+03,
                      -4.57015200E+01])))

species(name='H_X(12)',
        atoms='H:1 X:1',
        thermo=(NASA([100.00, 952.92],
                     [-3.80976314E-01,  5.47242013E-03,  2.60864007E-06,
                      -9.64895670E-09,  4.63917161E-12, -4.23962246E+03,
                       1.01729412E+00]),
                NASA([952.92, 5000.00],
                     [ 2.80343297E+00, -5.41109881E-04,  4.99544622E-07,
                      -7.55050884E-11,  3.06845145E-15, -5.18038735E+03,
                      -1.59438832E+01])))

species(name='H2X(31)',
        atoms='H:2 X:1',
        thermo=(NASA([100.00, 911.31],
                     [-1.27861604E+00,  3.68016209E-02, -8.90320047E-05,
                       8.91165168E-08, -3.14526606E-11, -1.33397475E+03,
                       1.13162290E+01]),
                NASA([911.31, 5000.00],
                     [ 6.45768083E-01,  6.69539927E-03, -3.82676790E-06,
                       7.04691530E-10, -4.40996127E-14, -7.85311747E+02,
                       7.14557149E+00])))

#-------------------------------------------------------------------------------
# Reaction data
#-------------------------------------------------------------------------------

# surface1 Reaction 1
surface_reaction('X(1) + X(1) + O2(2) <=> OX + OX', stick(1.000000e+00, 0.0, 0.0))

# surface1 Reaction 2
surface_reaction('X(1) + NH3(6) <=> NH3X', stick(1.000000e+00, 0.0, 0.0))

# surface1 Reaction 3
surface_reaction('OX + NH3X <=> OHX + NH2_X(8)', [2.330000e+21, 0.0, 14.99])

# surface1 Reaction 4
surface_reaction('OX + NH2_X(8) <=> OHX + NH_X(9)', [2.330000e+21, 0.0, 34.362])

# surface1 Reaction 5
surface_reaction('OX + NH_X(9) <=> NX + OHX', [2.330000e+21, 0.0, 14.529])

# surface1 Reaction 6
surface_reaction('OHX + NH3X <=> H2O_X(10) + NH2_X(8)', [2.330000e+21, 0.0, 21.909])

# surface1 Reaction 7
surface_reaction('OHX + NH2_X(8) <=> NH_X(9) + H2O_X(10)', [2.330000e+21, 0.0, 23.292])

# surface1 Reaction 8
surface_reaction('OHX + NH_X(9) <=> NX + H2O_X(10)', [2.330000e+21, 0.0, 20.525])

# surface1 Reaction 9
surface_reaction('OHX + OHX <=> OX + H2O_X(10)', [2.330000e+21, 0.0, 22.139])

# surface1 Reaction 10
surface_reaction('X(1) + H2O(3) <=> H2O_X(10)', stick(1.000000e+00, 0.0, 10.378))

# surface1 Reaction 11
surface_reaction('X(1) + X(1) + N2(4) <=> NX + NX', stick(1.000000e+00, 0.0, 40.589))

# surface1 Reaction 12
surface_reaction('OX + NX <=> X(1) + NOX', [2.330000e+21, 0.0, 39.897])

# surface1 Reaction 13
surface_reaction('NOX <=> X(1) + NO(5)', [6.550000e+17, 0.0, 64.573])

# surface1 Reaction 14
surface_reaction('NX + NOX <=> X(1) + N2O_X(11)', [2.330000e+21, 0.0, 50.505])

# surface1 Reaction 15
surface_reaction('N2O_X(11) <=> X(1) + N2O(7)', [1.690000e+13, 0.0, 13.145])

# surface1 Reaction 16
surface_reaction('X(1) + NH3X <=> H_X(12) + NH2_X(8)', [1.960000e+23, 0.0, 21.217])

# surface1 Reaction 17
surface_reaction('X(1) + NH2_X(8) <=> H_X(12) + NH_X(9)', [2.190000e+23, 0.0, 28.135])

# surface1 Reaction 18
surface_reaction('X(1) + NH_X(9) <=> NX + H_X(12)', [2.190000e+23, 0.0, 21.217])

# surface1 Reaction 19
surface_reaction('OX + H_X(12) <=> X(1) + OHX', [2.330000e+21, 0.0, 20.525])

# surface1 Reaction 20
surface_reaction('H_X(12) + OHX <=> X(1) + H2O_X(10)', [2.330000e+21, 0.0, 23.062])

# surface1 Reaction 21
surface_reaction('NH_X(9) + NH3X <=> NH2_X(8) + NH2_X(8)', [4.949007e+19, 0.653, 28.713])

# surface1 Reaction 22
surface_reaction('NX + NH3X <=> NH_X(9) + NH2_X(8)', [4.949007e+19, 0.653, 28.713])

# surface1 Reaction 23
surface_reaction('X(1) + X(1) + NH3(6) <=> H_X(12) + NH2_X(8)', stick(2.400000e-02, 0.0, 0.0))

# surface1 Reaction 24
surface_reaction('NX + NH2_X(8) <=> NH_X(9) + NH_X(9)', [8.359256e+21, -0.018, 7.182])

# surface1 Reaction 25
surface_reaction('X(1) + X(1) + H2O(3) <=> H_X(12) + OHX', stick(3.200000e-02, 0.0, 2.058))

# surface1 Reaction 26
surface_reaction('X(1) + X(1) + H2(13) <=> H_X(12) + H_X(12)', stick(4.600000e-02, 0.0, 0.0))

# surface1 Reaction 27
surface_reaction('NH_X(9) + H2X(31) <=> H_X(12) + NH2_X(8)', [3.299338e+19, 0.653, 28.713])

# surface1 Reaction 28
surface_reaction('NX + H2X(31) <=> H_X(12) + NH_X(9)', [3.299338e+19, 0.653, 28.713])

# surface1 Reaction 29
surface_reaction('OHX + H2X(31) <=> H_X(12) + H2O_X(10)', [2.000000e+17, 0.0, 0.0])

# surface1 Reaction 30
surface_reaction('X(1) + H2(13) <=> H2X(31)', stick(1.000000e-01, 0.0, 0.0))

# surface1 Reaction 31
surface_reaction('H2X(31) + NH2_X(8) <=> H_X(12) + NH3X', [2.000000e+17, 0.0, 0.0])
